          20

C        -0.376350       -0.000000        4.197700
C        -0.182362       -0.000000        6.682597
C         0.576426        0.000000        7.809640
S        -0.000000        0.000000        9.536973
C         0.376889        0.000000        5.339286
H         1.662644        0.000000        7.764838
H         1.465757        0.000000        5.255165
H        -1.271587       -0.000000        6.760793
C         0.182799        0.000000        2.854358
H        -1.465221       -0.000000        4.281855
C        -0.576133       -0.000000        1.727399
H         1.272009        0.000000        2.776007
S         0.000000        0.000000        0.000000
H        -1.662345       -0.000000        1.772396
Au        0.000000       -1.662766       11.851646
Au       -1.440000        0.831384       11.851646
Au        1.440000        0.831385       11.851646
Au        0.000000       -1.662766       -2.314673
Au        1.440000        0.831384       -2.314673
Au       -1.440000        0.831384       -2.314673
