          21

C        -2.235637       -0.000000        5.972657
C        -3.644969       -0.007448        6.052976
C        -4.374730       -0.016379        4.867706
C        -3.701997       -0.017213        3.649121
C        -2.290426       -0.006815        3.662336
N        -1.563341        0.001586        4.800800
C        -1.454726        0.004058        7.164712
C        -0.792048        0.002785        8.191455
S        -0.000000        0.000000        9.670446
C        -1.564319       -0.005284        2.435814
C        -0.978465       -0.004083        1.363068
S        -0.000000        0.000000       -0.000000
H        -4.135464       -0.007341        7.025636
H        -5.465350       -0.023231        4.893598
H        -4.238502       -0.026203        2.701098
Au        0.000000       -1.662766       11.985119
Au       -1.440000        0.831384       11.985119
Au        1.440000        0.831385       11.985119
Au        0.000000       -1.662766       -2.314673
Au        1.440000        0.831384       -2.314673
Au       -1.440000        0.831384       -2.314673
